Circuit: * C:\Users\shubh\Documents\CMPE 110\My Labs\Lab 1\Draft5.asc

.OP point found by inspection.

Date: Tue Oct 04 17:58:57 2022
Total elapsed time: 0.079 seconds.

tnom = 27
temp = 27
method = modified trap
totiter = 2172
traniter = 2172
tranpoints = 1080
accept = 1072
rejected = 8
matrix size = 4
fillins = 0
solver = Normal
Matrix Compiler1:       6 opcodes  0.1/[0.1]/0.1
Matrix Compiler2:      21 opcodes  0.1/[0.1]/0.1

