Circuit: * C:\Users\shubh\Documents\CMPE 110\My Labs\Lab 1\Draft2.asc

WARNING: Less than two connections to node NC_01.  This node is used by V1.
Direct Newton iteration for .op point succeeded.

Date: Tue Oct 04 17:21:50 2022
Total elapsed time: 0.119 seconds.

tnom = 27
temp = 27
method = modified trap
totiter = 2102
traniter = 2082
tranpoints = 1042
accept = 1042
rejected = 0
matrix size = 5
fillins = 0
solver = Normal
Matrix Compiler1: 150 bytes object code size  0.2/0.1/[0.1]
Matrix Compiler2: 301 bytes object code size  0.1/0.2/[0.1]

