Circuit: * C:\Users\shubh\Documents\CMPE 110\My Labs\Lab 1\Draft3.asc

.OP point found by inspection.

Date: Tue Oct 04 17:46:51 2022
Total elapsed time: 0.094 seconds.

tnom = 27
temp = 27
method = modified trap
totiter = 2131
traniter = 2131
tranpoints = 1059
accept = 1052
rejected = 7
matrix size = 4
fillins = 0
solver = Normal
Matrix Compiler1: 118 bytes object code size  0.1/0.1/[0.1]
Matrix Compiler2: 242 bytes object code size  0.1/0.1/[0.1]

